powerflow/Codes/PF_Formulation/resultados_csv/9bus_transformer_fields__1617_qv.csv
ID_Barra,Tipo_Barra,Vm_pu,Va_graus,Pg_pu,Qg_pu,Pd_pu,Qd_pu,Slack_QLIM_pu,Slack_VLIM_pu
1,3,1.0749999999592506,0.0,1.4249139237024837,0.10878732877728024,0.0,0.0,-4.074951086873111e-11,0.0
2,2,1.0749999999602722,-1.8306321968134323,0.9,-0.025954278064338684,0.0,0.0,-3.972785957911707e-11,0.0
3,2,1.0749999999640747,-1.4477110237376059,0.85,-0.137354797866975,0.0,0.0,-3.592546377847743e-11,0.0
4,1,1.0718935709849604,-4.08452471378984,0.0,0.0,0.0,0.0,0.0,0.0
5,1,1.0500785121218186,-7.704158558472925,0.0,0.0,1.25,0.5,0.0,4.491588794968275e-13
6,1,1.0641654475499631,-6.699227623752152,0.0,0.0,0.9,0.3,0.0,6.987627036888714e-13
7,1,1.0777799070917078,-4.613402553403159,0.0,0.0,0.0,0.0,0.0,0.0
8,1,1.0690931890948119,-6.363269601974095,0.0,0.0,1.0,0.35,0.0,8.011720358528555e-13
9,1,1.0834786409268766,-3.8987082525610792,0.0,0.0,0.0,0.0,0.0,0.0
